
**** 09/03/18 20:07:27 ****** PSpice 16.5.0 (April 2011) ****** ID# 0 ********

 ** Profile: "SCHEMATIC1-Transient"  [ D:\DevelopWorkSpace\Github\AudioProject\KC_Amp\KCInput_VAS\Pspice\KC_Input_VAS_Spice-PSpiceFil


 ****     CIRCUIT DESCRIPTION


******************************************************************************




** Creating circuit file "Transient.cir" 
** WARNING: THIS AUTOMATICALLY GENERATED FILE MAY BE OVERWRITTEN BY SUBSEQUENT SIMULATIONS

*Libraries: 
* Profile Libraries :
* Local Libraries :
* From [PSPICE NETLIST] section of D:\DevelopProgramFiles\Cadence\SPB_16.5\tools\PSpice\PSpice.ini file:
.lib "nom.lib" 

*Analysis directives: 
.TRAN  0 20ms 0 
.PROBE V(alias(*)) I(alias(*)) W(alias(*)) D(alias(*)) NOISE(alias(*)) 
.INC "..\SCHEMATIC1.net" 



**** INCLUDING SCHEMATIC1.net ****
* source KC_INPUT_VAS_SPICE
R_R1         N00464 N00446  1k TC=0,0 
R_R2         N00472 N00446  1k TC=0,0 
R_R3         N00286 N00484  1k TC=0,0 
R_R4         N00286 N00488  1k TC=0,0 
R_R5         N00274 0  1k TC=0,0 
R_R6         N00282 N00321  1k TC=0,0 
Q_Q1         N00286 N00274 N00282 Q2SC1815
Q_Q2         N00274 N00282 N00321 Q2SC1815
V_V1         0 N00321 DC 25v  
V_V2         N00446 0 DC 25v  
V_V3         N00598 0 DC 0Vdc AC 0.001Vac 
X_U1         N00464 N00598 N00484 N00488 0 N00472 MAT02 

**** RESUMING Transient.cir ****
.END


ERROR(ORPSIM-15108): Subcircuit MAT02 used by X_U1 is undefined
