Circuit: * D:\DevelopWorkSpace\Github\AudioProject\KC_Amp\KCBuffer\LTSpice\KC_Buffer_Spice.asc

Direct Newton iteration for .op point succeeded.

Date: Sun Sep 02 21:32:55 2018
Total elapsed time: 0.037 seconds.

tnom = 27
temp = 27
method = modified trap
totiter = 2088
traniter = 2082
tranpoints = 1042
accept = 1042
rejected = 0
matrix size = 31
fillins = 32
solver = Normal
Matrix Compiler1: 3.49 KB object code size  0.4/0.2/[0.1]
Matrix Compiler2: 3.03 KB object code size  0.2/0.3/[0.2]

