Circuit: * D:\DevelopWorkSpace\Github\AudioProject\KC_Amp\KCInput_VAS\LTSpice\Draft1.asc

Direct Newton iteration for .op point succeeded.

Date: Mon Sep 03 17:23:19 2018
Total elapsed time: 0.030 seconds.

tnom = 27
temp = 27
method = modified trap
totiter = 2102
traniter = 2086
tranpoints = 1044
accept = 1044
rejected = 0
matrix size = 53
fillins = 66
solver = Normal
Matrix Compiler1: 7.21 KB object code size  0.9/0.5/[0.3]
Matrix Compiler2: 5.82 KB object code size  0.3/0.4/[0.2]

