Circuit: * D:\DevelopWorkSpace\Github\AudioProject\KC_Amp\KCInput_VAS\LTSpice\Draft1.asc

Direct Newton iteration for .op point succeeded.

Date: Sun Sep 02 22:23:59 2018
Total elapsed time: 0.025 seconds.

tnom = 27
temp = 27
method = modified trap
totiter = 2088
traniter = 2082
tranpoints = 1042
accept = 1042
rejected = 0
matrix size = 15
fillins = 0
solver = Normal
Matrix Compiler1: 640 bytes object code size  0.1/0.1/[0.0]
Matrix Compiler2: 1.15 KB object code size  0.1/0.1/[0.1]

