
**** 02/07/19 22:12:50 ****** PSpice 16.5.0 (April 2011) ****** ID# 0 ********

 ** Profile: "SCHEMATIC1-bias"  [ D:\DEVELOPWORKSPACE\GITHUB\AUDIOPROJECT\KC_AMP\SIMULATION\KC_No_NFB\KC_No_NFB_Sim-PSpiceFiles\SCHEM


 ****     CIRCUIT DESCRIPTION


******************************************************************************




** Creating circuit file "bias.cir" 
** WARNING: THIS AUTOMATICALLY GENERATED FILE MAY BE OVERWRITTEN BY SUBSEQUENT SIMULATIONS

*Libraries: 
* Profile Libraries :
* Local Libraries :
.LIB "d:/developworkspace/github/orcad_lib/pspice/mat02.lib" 
* From [PSPICE NETLIST] section of D:\DevelopProgramFiles\Cadence\SPB_16.5\tools\PSpice\PSpice.ini file:
.lib "nom.lib" 

*Analysis directives: 
.AC DEC 100 10 100M
---------------$
ERROR(ORPSIM-16103): Invalid value
.PROBE V(alias(*)) I(alias(*)) W(alias(*)) D(alias(*)) NOISE(alias(*)) 
.INC "..\SCHEMATIC1.net" 



**** INCLUDING SCHEMATIC1.net ****
* source KC_NO_NFB_SIM
R_R28         N17643 N17663  150 TC=0,0 
R_R25         N17633 N17931  10 TC=0,0 
X_U3         N17957 N17937 N17931 N17751 0 N17779 MAT02 
R_R24         N17779 N17733  1000 TC=0,0 
R_R23         N17957 N17733  1000 TC=0,0 
R_R26         N17633 N17751  10 TC=0,0 
R_R27         N17629 0  10k TC=0,0 
Q_Q17         N17633 N17629 N17643 Q2SC1815
Q_Q18         N17629 N17643 N17663 Q2SC1815
Q_Q10         N17733 N17779 N18912 Q2SC1815
R_R15         N17663 N19086  200 TC=0,0 
D_D1         0 N19210 D1N4154_1 
R_R17         N19318 N19166  10 TC=0,0 
Q_Q11         N17733 N17957 N18906 Q2SC1815
R_R16         N19018 N19072  2k TC=0,0 
Q_Q12         N19210 N19018 N19072 Q2SC3429 
I_I3         N18912 0 DC 0.002Adc  
R_R18         N19324 N19166  10 TC=0,0 
I_I4         N18906 0 DC 0.002Adc  
R_R20         N19238 0  2k TC=0,0 
R_R21         N20100 N21383  50 TC=0,0 
Q_Q16         N20100 N18906 N19324 Q2SA921
Q_Q15         N19210 N18912 N19318 Q2SA921
Q_Q14         N19018 N19238 N19210 Q2SA1015
R_R19         N19166 N17733  100 TC=0,0 
Q_Q13         N20100 N19018 N19086 Q2SC3429 
R_R14         N17663 N19072  200 TC=0,0 
R_R9         OUT N21111  10 TC=0,0 
R_R1         N21383 N21215  10 TC=0,0 
Q_Q3         N21231 N21215 N21205 MPS8599
R_R3         N21205 N21185  51 TC=0,0 
Q_Q1         N17733 N21189 N21111 Q2N5223
R_R6         N21159 N21155  51 TC=0,0 
R_R7         N21189 N21185  10 TC=0,0 
R_R8         N21155 N21169  10 TC=0,0 
R_R4         N21231 N21143  10 TC=0,0 
V_V2         0 N17663 30Vdc
R_R2         N21225 N21383  10 TC=0,0 
I_I2         N21155 N17663 DC 0.005Adc  
R_R10         N21143 OUT  10 TC=0,0 
C_C1         N21155 N21185  10n  TC=0,0 
Q_Q4         N21259 N21225 N21159 MPS8099
Q_Q2         N21143 N21169 N17663 Q2N5226
V_V1         N17733 0 30Vdc
R_R5         N21259 N21111  10 TC=0,0 
I_I1         N17733 N21185 DC 0.005Adc  
C_C2         0 N22333  100p  TC=0,0 
R_R29         0 IN  47k TC=0,0 
R_R30         N22333 IN  407 TC=0,0 
R_R31         N17937 N22333  10 TC=0,0 
R_R32         N23012 N17733  45 TC=0,0 
R_R33         N22887 N17957  45 TC=0,0 
C_C3         N20100 N22887  100p  TC=0,0 
C_C4         N17779 N23012  1n  TC=0,0 
R_R35         N23401 IN  20 TC=0,0 
V_V3         N23401 0 DC 0Vdc AC 0.001Vac 

**** RESUMING bias.cir ****
.END
