
**** 02/10/19 12:13:36 ****** PSpice 16.5.0 (April 2011) ****** ID# 0 ********

 ** Profile: "SCHEMATIC1-bias"  [ D:\DevelopWorkSpace\Github\AudioProject\KC_Amp\Simulation\InputNetwork\inputnetworksim-pspicefiles\


 ****     CIRCUIT DESCRIPTION


******************************************************************************




** Creating circuit file "bias.cir" 
** WARNING: THIS AUTOMATICALLY GENERATED FILE MAY BE OVERWRITTEN BY SUBSEQUENT SIMULATIONS

*Libraries: 
* Profile Libraries :
* Local Libraries :
* From [PSPICE NETLIST] section of D:\DevelopProgramFiles\Cadence\SPB_16.5\tools\PSpice\PSpice.ini file:
.lib "nom.lib" 

*Analysis directives: 
.AC DEC 100 1 1000K
.STEP LIN PARAM R6 20 200 50 
.PROBE V(alias(*)) I(alias(*)) W(alias(*)) D(alias(*)) NOISE(alias(*)) 
.INC "..\SCHEMATIC1.net" 



**** INCLUDING SCHEMATIC1.net ****
* source INPUTNETWORKSIM
R_R2         0 N01498  {R2} TC=0,0 
R_R3         N01498 N00188  {R3} TC=0,0 
R_R4         N00188 OUT  10 TC=0,0 
C_C1         0 N00188  {C1}  TC=0,0 
R_R5         0 OUT  {R5} TC=0,0 
V_V1         N00306 0 DC 0Vdc AC 1Vac 
R_R6         N00306 IN  {R6} TC=0,0 
C_C2         IN N01498  10u  TC=0,0 
.PARAM  c1=1n r2=50k r3=400 r5=10k r6=20

**** RESUMING bias.cir ****
.END

**** 02/10/19 12:13:36 ****** PSpice 16.5.0 (April 2011) ****** ID# 0 ********

 ** Profile: "SCHEMATIC1-bias"  [ D:\DevelopWorkSpace\Github\AudioProject\KC_Amp\Simulation\InputNetwork\inputnetworksim-pspicefiles\


 ****     SMALL SIGNAL BIAS SOLUTION       TEMPERATURE =   27.000 DEG C

 ****     CURRENT STEP                     PARAM R6 =   20    


******************************************************************************



 NODE   VOLTAGE     NODE   VOLTAGE     NODE   VOLTAGE     NODE   VOLTAGE


(   IN)    0.0000  (  OUT)    0.0000  (N00188)    0.0000 (N00306)    0.0000     

(N01498)    0.0000 




    VOLTAGE SOURCE CURRENTS
    NAME         CURRENT

    V_V1         0.000E+00

    TOTAL POWER DISSIPATION   0.00E+00  WATTS


**** 02/10/19 12:13:36 ****** PSpice 16.5.0 (April 2011) ****** ID# 0 ********

 ** Profile: "SCHEMATIC1-bias"  [ D:\DevelopWorkSpace\Github\AudioProject\KC_Amp\Simulation\InputNetwork\inputnetworksim-pspicefiles\


 ****     SMALL SIGNAL BIAS SOLUTION       TEMPERATURE =   27.000 DEG C

 ****     CURRENT STEP                     PARAM R6 =   70    


******************************************************************************



 NODE   VOLTAGE     NODE   VOLTAGE     NODE   VOLTAGE     NODE   VOLTAGE


(   IN)    0.0000  (  OUT)    0.0000  (N00188)    0.0000 (N00306)    0.0000     

(N01498)    0.0000 




    VOLTAGE SOURCE CURRENTS
    NAME         CURRENT

    V_V1         0.000E+00

    TOTAL POWER DISSIPATION   0.00E+00  WATTS


**** 02/10/19 12:13:36 ****** PSpice 16.5.0 (April 2011) ****** ID# 0 ********

 ** Profile: "SCHEMATIC1-bias"  [ D:\DevelopWorkSpace\Github\AudioProject\KC_Amp\Simulation\InputNetwork\inputnetworksim-pspicefiles\


 ****     SMALL SIGNAL BIAS SOLUTION       TEMPERATURE =   27.000 DEG C

 ****     CURRENT STEP                     PARAM R6 =  120   


******************************************************************************



 NODE   VOLTAGE     NODE   VOLTAGE     NODE   VOLTAGE     NODE   VOLTAGE


(   IN)    0.0000  (  OUT)    0.0000  (N00188)    0.0000 (N00306)    0.0000     

(N01498)    0.0000 




    VOLTAGE SOURCE CURRENTS
    NAME         CURRENT

    V_V1         0.000E+00

    TOTAL POWER DISSIPATION   0.00E+00  WATTS


**** 02/10/19 12:13:36 ****** PSpice 16.5.0 (April 2011) ****** ID# 0 ********

 ** Profile: "SCHEMATIC1-bias"  [ D:\DevelopWorkSpace\Github\AudioProject\KC_Amp\Simulation\InputNetwork\inputnetworksim-pspicefiles\


 ****     SMALL SIGNAL BIAS SOLUTION       TEMPERATURE =   27.000 DEG C

 ****     CURRENT STEP                     PARAM R6 =  170   


******************************************************************************



 NODE   VOLTAGE     NODE   VOLTAGE     NODE   VOLTAGE     NODE   VOLTAGE


(   IN)    0.0000  (  OUT)    0.0000  (N00188)    0.0000 (N00306)    0.0000     

(N01498)    0.0000 




    VOLTAGE SOURCE CURRENTS
    NAME         CURRENT

    V_V1         0.000E+00

    TOTAL POWER DISSIPATION   0.00E+00  WATTS



          JOB CONCLUDED

**** 02/10/19 12:13:36 ****** PSpice 16.5.0 (April 2011) ****** ID# 0 ********

 ** Profile: "SCHEMATIC1-bias"  [ D:\DevelopWorkSpace\Github\AudioProject\KC_Amp\Simulation\InputNetwork\inputnetworksim-pspicefiles\


 ****     JOB STATISTICS SUMMARY

 ****     CURRENT STEP                     PARAM R6 =  170   


******************************************************************************



  Total job time (using Solver 1)   =         .05
